Ethane
 OpenBabel04171313363D

  8  7  0  0  0  0  0  0  0  0999 V2000
    1.1851   -0.0038    0.9875 H   0  0  0  0  0  0  0  0  0  0  0  0
    0.7516   -0.0224   -0.0208 C   0  0  0  0  0  0  0  0  0  0  0  0
    1.1669    0.8330   -0.5693 H   0  0  0  0  0  0  0  0  0  0  0  0
    1.1155   -0.9329   -0.5145 H   0  0  0  0  0  0  0  0  0  0  0  0
   -0.7516    0.0225    0.0209 C   0  0  0  0  0  0  0  0  0  0  0  0
   -1.1669   -0.8334    0.5687 H   0  0  0  0  0  0  0  0  0  0  0  0
   -1.1157    0.9326    0.5151 H   0  0  0  0  0  0  0  0  0  0  0  0
   -1.1850    0.0044   -0.9875 H   0  0  0  0  0  0  0  0  0  0  0  0
  1  2  1  0  0  0  0
  2  3  1  0  0  0  0
  2  4  1  0  0  0  0
  2  5  1  0  0  0  0
  5  6  1  0  0  0  0
  5  7  1  0  0  0  0
  5  8  1  0  0  0  0
M  END
