Methane
 OpenBabel07281314033D

  5  4  0  0  0  0  0  0  0  0999 V2000
    0.0000    0.0000    0.0000 C   0  0  0  0  0  0  0  0  0  0  0  0
    0.0000    0.0000    1.0890 H   0  0  0  0  0  0  0  0  0  0  0  0
    1.0267    0.0000   -0.3630 H   0  0  0  0  0  0  0  0  0  0  0  0
   -0.5134   -0.8892   -0.3630 H   0  0  0  0  0  0  0  0  0  0  0  0
   -0.5134    0.8892   -0.3630 H   0  0  0  0  0  0  0  0  0  0  0  0
  1  2  1  0  0  0  0
  3  1  1  0  0  0  0
  4  1  1  0  0  0  0
  5  1  1  0  0  0  0
M  END
$$$$
Caffeine
 OpenBabel07281314033D

 24 25  0  0  0  0  0  0  0  0999 V2000
    1.3120   -1.0479    0.0025 N   0  0  0  0  0  0  0  0  0  0  0  0
    2.2465   -2.1762    0.0031 C   0  0  0  0  0  0  0  0  0  0  0  0
    1.7906    0.2081    0.0010 C   0  0  0  0  0  0  0  0  0  0  0  0
    2.9938    0.3838    0.0002 O   0  0  0  0  0  0  0  0  0  0  0  0
    0.9714    1.2767   -0.0001 N   0  0  0  0  0  0  0  0  0  0  0  0
    1.5339    2.6294   -0.0017 C   0  0  0  0  0  0  0  0  0  0  0  0
   -0.4026    1.0989   -0.0001 C   0  0  0  0  0  0  0  0  0  0  0  0
   -1.4446    1.9342   -0.0010 N   0  0  0  0  0  0  0  0  0  0  0  0
   -2.5608    1.2510   -0.0000 C   0  0  0  0  0  0  0  0  0  0  0  0
   -2.2862   -0.0680    0.0015 N   0  0  0  0  0  0  0  0  0  0  0  0
   -3.2614   -1.1612    0.0029 C   0  0  0  0  0  0  0  0  0  0  0  0
   -0.9114   -0.1939    0.0014 C   0  0  0  0  0  0  0  0  0  0  0  0
   -0.0163   -1.2853   -0.0022 C   0  0  0  0  0  0  0  0  0  0  0  0
   -0.4380   -2.4279   -0.0068 O   0  0  0  0  0  0  0  0  0  0  0  0
    3.2697   -1.8004    0.0022 H   0  0  0  0  0  0  0  0  0  0  0  0
    2.0830   -2.7828    0.8938 H   0  0  0  0  0  0  0  0  0  0  0  0
    2.0821   -2.7846   -0.8862 H   0  0  0  0  0  0  0  0  0  0  0  0
    2.6223    2.5703   -0.0019 H   0  0  0  0  0  0  0  0  0  0  0  0
    1.1987    3.1611   -0.8923 H   0  0  0  0  0  0  0  0  0  0  0  0
    1.1990    3.1632    0.8877 H   0  0  0  0  0  0  0  0  0  0  0  0
   -3.5520    1.6797   -0.0001 H   0  0  0  0  0  0  0  0  0  0  0  0
   -3.5037   -1.4333   -1.0244 H   0  0  0  0  0  0  0  0  0  0  0  0
   -2.8389   -2.0244    0.5173 H   0  0  0  0  0  0  0  0  0  0  0  0
   -4.1672   -0.8395    0.5168 H   0  0  0  0  0  0  0  0  0  0  0  0
  1  2  1  0  0  0  0
  2 16  1  0  0  0  0
  3  1  1  0  0  0  0
  4  3  2  0  0  0  0
  5  7  1  0  0  0  0
  5  3  1  0  0  0  0
  6  5  1  0  0  0  0
  6 20  1  0  0  0  0
  7 12  2  0  0  0  0
  8  7  1  0  0  0  0
  8  9  2  0  0  0  0
  9 10  1  0  0  0  0
 10 11  1  0  0  0  0
 11 24  1  0  0  0  0
 11 23  1  0  0  0  0
 12 10  1  0  0  0  0
 13 12  1  0  0  0  0
 13  1  1  0  0  0  0
 14 13  2  0  0  0  0
 15  2  1  0  0  0  0
 17  2  1  0  0  0  0
 18  6  1  0  0  0  0
 19  6  1  0  0  0  0
 21  9  1  0  0  0  0
 22 11  1  0  0  0  0
M  END
$$$$
